Version 4
SHEET 1 2076 900
WIRE 112 -880 48 -880
WIRE 400 -880 336 -880
WIRE 48 -800 48 -880
WIRE 336 -800 336 -880
WIRE 48 -656 48 -720
WIRE 336 -656 336 -720
WIRE 112 -560 48 -560
WIRE 400 -560 336 -560
WIRE 48 -480 48 -560
WIRE 336 -480 336 -560
WIRE 48 -336 48 -400
WIRE 336 -336 336 -400
WIRE 576 -224 144 -224
WIRE 144 -112 144 -224
WIRE 144 -112 -48 -112
WIRE 336 -112 144 -112
WIRE 336 -96 336 -112
WIRE -48 -80 -48 -112
WIRE 288 -16 208 -16
WIRE -96 0 -176 0
WIRE -48 32 -48 16
WIRE 704 32 -48 32
WIRE 704 48 704 32
WIRE 336 128 336 0
WIRE 704 128 336 128
WIRE -48 144 -48 32
WIRE 336 144 336 128
WIRE -96 224 -176 224
WIRE 288 224 208 224
WIRE -48 256 -48 240
WIRE 128 256 -48 256
WIRE 336 256 336 240
WIRE 336 256 128 256
WIRE 128 320 128 256
FLAG 128 320 0
FLAG 576 -144 0
FLAG -176 0 S14
FLAG 208 224 S14
FLAG 208 -16 S23
FLAG -176 224 S23
FLAG 48 -656 0
FLAG 112 -880 control
FLAG 48 -336 0
FLAG 112 -560 S14
FLAG 336 -336 0
FLAG 400 -560 S23
FLAG 336 -656 0
FLAG 400 -880 carrier
SYMBOL res 688 32 R0
SYMATTR InstName R1
SYMATTR Value 24
SYMBOL voltage 576 -240 R0
WINDOW 123 0 0 Left 0
WINDOW 39 0 0 Left 0
SYMATTR InstName Vin
SYMATTR Value 48
SYMBOL voltage 48 -816 R0
WINDOW 123 0 0 Left 0
WINDOW 39 0 0 Left 0
SYMATTR InstName V2
SYMATTR Value SINE(5 5 50)
SYMBOL bv 336 -496 R0
WINDOW 3 -71 210 Left 2
SYMATTR Value v=if(v(control)>=v(carrier),10,0)
SYMATTR InstName B1
SYMBOL bv 48 -496 R0
WINDOW 3 -191 210 Left 2
SYMATTR Value v=if(v(control)<v(carrier),10,0)
SYMATTR InstName B2
SYMBOL voltage 336 -816 R0
WINDOW 123 0 0 Left 0
WINDOW 39 0 0 Left 0
SYMATTR InstName V3
SYMATTR Value PULSE(0 10 0 50u 50u 0ms 100u)
SYMBOL nmos 288 144 R0
SYMATTR InstName M1
SYMBOL nmos 288 -96 R0
SYMATTR InstName M2
SYMBOL nmos -96 -80 R0
SYMATTR InstName M3
SYMBOL nmos -96 144 R0
SYMATTR InstName M4
TEXT 488 200 Left 2 !.tran 0 200u 0
