Version 4
SHEET 1 1896 900
WIRE 576 -224 144 -224
WIRE 144 -112 144 -224
WIRE 144 -112 -48 -112
WIRE 336 -112 144 -112
WIRE -96 -32 -128 -32
WIRE 288 -32 224 -32
WIRE -48 64 -48 -16
WIRE 80 64 -48 64
WIRE 336 64 336 -16
WIRE 336 64 160 64
WIRE -48 128 -48 64
WIRE 336 128 336 64
WIRE -48 256 -48 224
WIRE 128 256 -48 256
WIRE 336 256 336 224
WIRE 336 256 128 256
WIRE 128 320 128 256
WIRE -128 336 -128 -32
WIRE 192 336 -128 336
WIRE 288 336 288 208
WIRE 288 336 192 336
WIRE -96 368 -96 208
WIRE 224 368 224 -32
WIRE 224 368 -96 368
WIRE 288 368 224 368
WIRE 288 560 288 368
WIRE 192 656 192 336
WIRE 288 656 288 624
WIRE 288 656 192 656
WIRE 192 704 192 656
WIRE 192 800 192 784
WIRE 304 800 304 624
WIRE 304 800 192 800
WIRE 192 880 192 800
FLAG 192 880 0
FLAG 128 320 0
FLAG 576 -144 0
SYMBOL voltage 192 688 R0
WINDOW 3 -373 64 Left 2
WINDOW 123 0 0 Left 0
WINDOW 39 0 0 Left 0
SYMATTR Value PULSE(0 20 0 00 0 50u 100u)
SYMATTR InstName V2
SYMBOL res 176 48 R90
WINDOW 0 0 56 VBottom 2
WINDOW 3 32 56 VTop 2
SYMATTR InstName R1
SYMATTR Value 24
SYMBOL InfineonNMOS\\IRL60HS118_L1 -96 -112 R0
SYMATTR InstName U1
SYMBOL InfineonNMOS\\IRL60HS118_L1 288 -112 R0
SYMATTR InstName U2
SYMBOL InfineonNMOS\\IRL60HS118_L1 -96 128 R0
SYMATTR InstName U3
SYMBOL InfineonNMOS\\IRL60HS118_L1 288 128 R0
SYMATTR InstName U4
SYMBOL voltage 576 -240 R0
WINDOW 123 0 0 Left 0
WINDOW 39 0 0 Left 0
SYMATTR InstName V1
SYMATTR Value 48
SYMBOL Digital\\inv 224 624 R270
SYMATTR InstName A1
TEXT 320 -280 Left 2 !.tran 0 200u 0
