Version 4
SHEET 1 7744 900
WIRE 1088 -464 368 -464
WIRE 1168 -464 1088 -464
WIRE 1248 -464 1168 -464
WIRE 1088 -432 1088 -464
WIRE 1088 -432 1008 -432
WIRE 368 -416 368 -464
WIRE 368 -416 272 -416
WIRE 1248 -400 1248 -464
WIRE 1040 -352 1008 -352
WIRE 1088 -352 1088 -432
WIRE 320 -336 272 -336
WIRE 368 -336 368 -416
WIRE 1088 -288 1008 -288
WIRE 368 -272 272 -272
WIRE 1008 -272 1008 -288
WIRE 1248 -272 1248 -320
WIRE 1168 -256 1168 -464
WIRE -400 -240 -480 -240
WIRE -256 -240 -320 -240
WIRE 368 -240 368 -272
WIRE 368 -240 -96 -240
WIRE 1088 -240 1088 -288
WIRE 1088 -240 832 -240
WIRE -480 -224 -480 -240
WIRE -256 -224 -256 -240
WIRE -96 -208 -96 -240
WIRE 320 -192 272 -192
WIRE 368 -192 368 -240
WIRE 1008 -176 1008 -192
WIRE 1040 -176 1008 -176
WIRE 1088 -176 1088 -240
WIRE -480 -80 -480 -144
WIRE -272 -80 -480 -80
WIRE -256 -80 -256 -144
WIRE -256 -80 -272 -80
WIRE -96 -80 -96 -128
WIRE 832 -80 832 -240
WIRE 832 -80 -96 -80
WIRE 368 -48 368 -128
WIRE 1088 -48 1088 -112
WIRE 1088 -48 368 -48
WIRE 1168 -48 1168 -192
WIRE 1168 -48 1088 -48
WIRE 1248 -48 1248 -192
WIRE 1248 -48 1168 -48
WIRE -272 16 -272 -80
WIRE 1248 32 1248 -48
FLAG -272 16 0
FLAG 1248 32 0
SYMBOL ind2 -272 -240 R0
SYMATTR InstName L1
SYMATTR Value 1m
SYMATTR Type ind
SYMBOL ind2 -80 -112 R180
WINDOW 0 36 80 Left 2
WINDOW 3 36 40 Left 2
SYMATTR InstName L2
SYMATTR Value 2m
SYMATTR Type ind
SYMBOL res 1232 -288 R0
SYMATTR InstName R1
SYMATTR Value 18
SYMBOL cap 1152 -256 R0
SYMATTR InstName C1
SYMATTR Value 220µ
SYMBOL ind 1232 -416 R0
SYMATTR InstName L3
SYMATTR Value 231m
SYMBOL Misc\\SCR 352 -272 M180
SYMATTR InstName U1
SYMBOL Misc\\SCR 1072 -288 M180
SYMATTR InstName U2
SYMBOL Misc\\SCR 1072 -112 M180
SYMATTR InstName U3
SYMBOL voltage 1008 -336 R180
WINDOW 123 0 0 Left 0
WINDOW 39 0 0 Left 0
SYMATTR InstName V2
SYMATTR Value PULSE(0 5 3m 1n 1n 0.4m 20m)
SYMBOL Misc\\SCR 352 -128 M180
SYMATTR InstName U4
SYMBOL voltage 1008 -176 R180
WINDOW 123 0 0 Left 0
WINDOW 39 0 0 Left 0
SYMATTR InstName V3
SYMATTR Value PULSE(0 5 13m 1n 1n 0.4m 20m)
SYMBOL voltage 272 -320 R180
WINDOW 123 0 0 Left 0
WINDOW 39 0 0 Left 0
SYMATTR InstName V4
SYMATTR Value PULSE(0 5 13m 1n 1n 0.4m 20m)
SYMBOL voltage 272 -176 R180
WINDOW 123 0 0 Left 0
WINDOW 39 0 0 Left 0
SYMATTR InstName V5
SYMATTR Value PULSE(0 5 3m 1n 1n 0.4m 20m)
SYMBOL res -304 -256 R90
WINDOW 0 0 56 VBottom 2
WINDOW 3 32 56 VTop 2
SYMATTR InstName R2
SYMATTR Value 0.1
SYMBOL voltage -480 -240 R0
WINDOW 123 0 0 Left 0
WINDOW 39 0 0 Left 0
SYMATTR InstName V1
SYMATTR Value SINE(0 340 50)
TEXT 352 -536 Left 6 !K L1 L2 1
TEXT 320 -696 Left 6 !.tran 100m
TEXT 392 -776 Left 2 !.lib C:\\Users\\user\\Documents\\LTspiceXVII\\lib\\sym\\Misc\\thyristr.lib
TEXT 392 -840 Left 2 !.lib C:\\Users\\user\\Documents\\LTspiceXVII\\lib\\sym\\Misc\\Thyristor_SCR_EC103xx_SxSx_A_SPICE_Model_lib.lib
TEXT 40 312 Left 6 ;FULL WAVE CONTROLLED\n1-PH RECTIFER
