Version 4
SHEET 1 7744 900
WIRE 5680 -1984 5680 -2032
WIRE 2448 -1968 2448 -2016
WIRE 4080 -1968 4080 -2016
WIRE 5616 -1936 5200 -1936
WIRE 5760 -1936 5760 -2032
WIRE 5760 -1936 5680 -1936
WIRE 6192 -1936 5760 -1936
WIRE 2384 -1920 1968 -1920
WIRE 2528 -1920 2528 -2016
WIRE 2528 -1920 2448 -1920
WIRE 2960 -1920 2528 -1920
WIRE 4016 -1920 3600 -1920
WIRE 4160 -1920 4160 -2016
WIRE 4160 -1920 4080 -1920
WIRE 4592 -1920 4160 -1920
WIRE 5200 -1808 5200 -1936
WIRE 1968 -1792 1968 -1920
WIRE 3600 -1792 3600 -1920
WIRE 5584 -1744 5440 -1744
WIRE 5856 -1744 5648 -1744
WIRE 4896 -1664 4816 -1664
WIRE 5040 -1664 4976 -1664
WIRE 5200 -1664 5200 -1728
WIRE 5440 -1664 5440 -1744
WIRE 5440 -1664 5200 -1664
WIRE 5584 -1664 5440 -1664
WIRE 5712 -1664 5664 -1664
WIRE 5856 -1664 5856 -1744
WIRE 5856 -1664 5792 -1664
WIRE 6192 -1664 6192 -1936
WIRE 6192 -1664 5856 -1664
WIRE 1664 -1648 1584 -1648
WIRE 1808 -1648 1744 -1648
WIRE 1968 -1648 1968 -1712
WIRE 2352 -1648 1968 -1648
WIRE 2960 -1648 2960 -1920
WIRE 2960 -1648 2432 -1648
WIRE 3296 -1648 3216 -1648
WIRE 3440 -1648 3376 -1648
WIRE 3600 -1648 3600 -1712
WIRE 3984 -1648 3600 -1648
WIRE 4112 -1648 4064 -1648
WIRE 4592 -1648 4592 -1920
WIRE 4592 -1648 4192 -1648
WIRE 4816 -1648 4816 -1664
WIRE 5040 -1648 5040 -1664
WIRE 1584 -1632 1584 -1648
WIRE 1808 -1632 1808 -1648
WIRE 3216 -1632 3216 -1648
WIRE 3440 -1632 3440 -1648
WIRE 5200 -1632 5200 -1664
WIRE 1968 -1616 1968 -1648
WIRE 3600 -1616 3600 -1648
WIRE 5616 -1552 5616 -1600
WIRE 2384 -1536 2384 -1584
WIRE 4016 -1536 4016 -1584
WIRE 4816 -1504 4816 -1568
WIRE 5024 -1504 4816 -1504
WIRE 5040 -1504 5040 -1568
WIRE 5040 -1504 5024 -1504
WIRE 5200 -1504 5200 -1552
WIRE 5216 -1504 5200 -1504
WIRE 5552 -1504 5216 -1504
WIRE 5696 -1504 5696 -1600
WIRE 5696 -1504 5616 -1504
WIRE 6192 -1504 6192 -1664
WIRE 6192 -1504 5696 -1504
WIRE 1584 -1488 1584 -1552
WIRE 1792 -1488 1584 -1488
WIRE 1808 -1488 1808 -1552
WIRE 1808 -1488 1792 -1488
WIRE 1968 -1488 1968 -1536
WIRE 1984 -1488 1968 -1488
WIRE 2320 -1488 1984 -1488
WIRE 2464 -1488 2464 -1584
WIRE 2464 -1488 2384 -1488
WIRE 2960 -1488 2960 -1648
WIRE 2960 -1488 2464 -1488
WIRE 3216 -1488 3216 -1552
WIRE 3424 -1488 3216 -1488
WIRE 3440 -1488 3440 -1552
WIRE 3440 -1488 3424 -1488
WIRE 3600 -1488 3600 -1536
WIRE 3616 -1488 3600 -1488
WIRE 3952 -1488 3616 -1488
WIRE 4096 -1488 4096 -1584
WIRE 4096 -1488 4016 -1488
WIRE 4592 -1488 4592 -1648
WIRE 4592 -1488 4096 -1488
WIRE 5024 -1440 5024 -1504
WIRE 5216 -1440 5216 -1504
WIRE 5216 -1440 5024 -1440
WIRE 1792 -1424 1792 -1488
WIRE 1984 -1424 1984 -1488
WIRE 1984 -1424 1792 -1424
WIRE 3424 -1424 3424 -1488
WIRE 3616 -1424 3616 -1488
WIRE 3616 -1424 3424 -1424
WIRE 5024 -1408 5024 -1440
WIRE 1792 -1392 1792 -1424
WIRE 3424 -1392 3424 -1424
FLAG 1792 -1392 0
FLAG 3424 -1392 0
FLAG 5024 -1408 0
SYMBOL ind2 1792 -1536 M180
WINDOW 0 36 80 Left 2
WINDOW 3 36 40 Left 2
SYMATTR InstName L16
SYMATTR Value 1m
SYMATTR Type ind
SYMBOL ind2 1984 -1520 R180
WINDOW 0 36 80 Left 2
WINDOW 3 36 40 Left 2
SYMATTR InstName L17
SYMATTR Value 1m
SYMATTR Type ind
SYMBOL res 2448 -1664 R90
WINDOW 0 0 56 VBottom 2
WINDOW 3 33 100 VTop 2
SYMATTR InstName R9
SYMATTR Value 18
SYMBOL Misc\\SCR 2384 -1936 M90
SYMATTR InstName U11
SYMBOL Misc\\SCR 2320 -1504 M90
SYMATTR InstName U12
SYMBOL voltage 2432 -2016 R270
WINDOW 123 0 0 Left 0
WINDOW 39 0 0 Left 0
WINDOW 0 -52 48 VRight 2
WINDOW 3 -27 123 VRight 2
SYMATTR InstName V15
SYMATTR Value PULSE(0 5 5m 1n 1n 0.4m 20m)
SYMBOL voltage 2368 -1584 R270
WINDOW 123 0 0 Left 0
WINDOW 39 0 0 Left 0
WINDOW 0 -49 39 VRight 2
WINDOW 3 -184 -124 VRight 2
SYMATTR InstName V16
SYMATTR Value PULSE(0 5 5m 1n 1n 0.4m 20m)
SYMBOL res 1760 -1664 R90
WINDOW 0 0 56 VBottom 2
WINDOW 3 32 56 VTop 2
SYMATTR InstName R10
SYMATTR Value 0.1
SYMBOL voltage 1584 -1648 R0
WINDOW 123 0 0 Left 0
WINDOW 39 0 0 Left 0
SYMATTR InstName V17
SYMATTR Value SINE(0 340 50)
SYMBOL ind2 1984 -1696 R180
WINDOW 0 36 80 Left 2
WINDOW 3 36 40 Left 2
SYMATTR InstName L19
SYMATTR Value 1m
SYMATTR Type ind
SYMBOL ind2 3424 -1536 M180
WINDOW 0 36 80 Left 2
WINDOW 3 36 40 Left 2
SYMATTR InstName L20
SYMATTR Value 1m
SYMATTR Type ind
SYMBOL ind2 3616 -1520 R180
WINDOW 0 36 80 Left 2
WINDOW 3 36 40 Left 2
SYMATTR InstName L21
SYMATTR Value 1m
SYMATTR Type ind
SYMBOL res 4080 -1664 R90
WINDOW 0 0 56 VBottom 2
WINDOW 3 33 100 VTop 2
SYMATTR InstName R11
SYMATTR Value 18
SYMBOL ind 4208 -1664 R90
WINDOW 0 5 56 VBottom 2
WINDOW 3 32 56 VTop 2
SYMATTR InstName L22
SYMATTR Value 200m
SYMBOL Misc\\SCR 4016 -1936 M90
SYMATTR InstName U13
SYMBOL Misc\\SCR 3952 -1504 M90
SYMATTR InstName U14
SYMBOL voltage 4064 -2016 R270
WINDOW 123 0 0 Left 0
WINDOW 39 0 0 Left 0
WINDOW 0 -52 48 VRight 2
WINDOW 3 -27 123 VRight 2
SYMATTR InstName V18
SYMATTR Value PULSE(0 5 5m 1n 1n 0.4m 20m)
SYMBOL voltage 4000 -1584 R270
WINDOW 123 0 0 Left 0
WINDOW 39 0 0 Left 0
WINDOW 0 -49 39 VRight 2
WINDOW 3 -184 -124 VRight 2
SYMATTR InstName V19
SYMATTR Value PULSE(0 5 5m 1n 1n 0.4m 20m)
SYMBOL res 3392 -1664 R90
WINDOW 0 0 56 VBottom 2
WINDOW 3 32 56 VTop 2
SYMATTR InstName R12
SYMATTR Value 0.1
SYMBOL voltage 3216 -1648 R0
WINDOW 123 0 0 Left 0
WINDOW 39 0 0 Left 0
SYMATTR InstName V20
SYMATTR Value SINE(0 340 50)
SYMBOL ind2 3616 -1696 R180
WINDOW 0 36 80 Left 2
WINDOW 3 36 40 Left 2
SYMATTR InstName L23
SYMATTR Value 1m
SYMATTR Type ind
SYMBOL ind2 5024 -1552 M180
WINDOW 0 36 80 Left 2
WINDOW 3 36 40 Left 2
SYMATTR InstName L24
SYMATTR Value 1m
SYMATTR Type ind
SYMBOL ind2 5216 -1536 R180
WINDOW 0 36 80 Left 2
WINDOW 3 36 40 Left 2
SYMATTR InstName L25
SYMATTR Value 1m
SYMATTR Type ind
SYMBOL res 5680 -1680 R90
WINDOW 0 0 56 VBottom 2
WINDOW 3 33 100 VTop 2
SYMATTR InstName R13
SYMATTR Value 18
SYMBOL cap 5648 -1760 R90
WINDOW 0 0 32 VBottom 2
WINDOW 3 32 32 VTop 2
SYMATTR InstName C7
SYMATTR Value 2m
SYMBOL ind 5808 -1680 R90
WINDOW 0 5 56 VBottom 2
WINDOW 3 32 56 VTop 2
SYMATTR InstName L26
SYMATTR Value 75m
SYMBOL Misc\\SCR 5616 -1952 M90
SYMATTR InstName U15
SYMBOL Misc\\SCR 5552 -1520 M90
SYMATTR InstName U16
SYMBOL voltage 5664 -2032 R270
WINDOW 123 0 0 Left 0
WINDOW 39 0 0 Left 0
WINDOW 0 -52 48 VRight 2
WINDOW 3 -27 123 VRight 2
SYMATTR InstName V21
SYMATTR Value PULSE(0 5 5m 1n 1n 0.4m 20m)
SYMBOL voltage 5600 -1600 R270
WINDOW 123 0 0 Left 0
WINDOW 39 0 0 Left 0
WINDOW 0 -49 39 VRight 2
WINDOW 3 -184 -124 VRight 2
SYMATTR InstName V22
SYMATTR Value PULSE(0 5 5m 1n 1n 0.4m 20m)
SYMBOL res 4992 -1680 R90
WINDOW 0 0 56 VBottom 2
WINDOW 3 32 56 VTop 2
SYMATTR InstName R14
SYMATTR Value 0.1
SYMBOL voltage 4816 -1664 R0
WINDOW 123 0 0 Left 0
WINDOW 39 0 0 Left 0
SYMATTR InstName V23
SYMATTR Value SINE(0 340 50)
SYMBOL ind2 5216 -1712 R180
WINDOW 0 36 80 Left 2
WINDOW 3 36 40 Left 2
SYMATTR InstName L27
SYMATTR Value 1m
SYMATTR Type ind
TEXT 4248 -2288 Left 6 !.tran 100m
TEXT 4016 -2384 Left 2 !.lib C:\\Users\\user\\Documents\\LTspiceXVII\\lib\\sym\\Misc\\thyristr.lib
TEXT 4016 -2448 Left 2 !.lib C:\\Users\\user\\Documents\\LTspiceXVII\\lib\\sym\\Misc\\Thyristor_SCR_EC103xx_SxSx_A_SPICE_Model_lib.lib
TEXT 2424 -2128 Left 6 !K5 L16 L17 L19 1
TEXT 4056 -2128 Left 6 !K6 L20 L21 L23 1
TEXT 5656 -2144 Left 6 !K7 L24 L25 L27 1
TEXT 1776 -1088 Left 6 ;FULL WAVE CONTROLLED\n1-PH RECTIFER\nR LOAD
TEXT 3568 -1104 Left 6 ;FULL WAVE CONTROLLED\n1-PH RECTIFER\nRL LOAD
TEXT 5192 -1112 Left 6 ;FULL WAVE CONTROLLED\n1-PH RECTIFER\nRLC LOAD
